/*--------------------------------*- C++ -*----------------------------------*\
| =========                 |                                                 |
| \\      /  F ield         | OpenFOAM: The Open Source CFD Toolbox           |
|  \\    /   O peration     | Version:  3.0.1                                 |
|   \\  /    A nd           | Web:      www.OpenFOAM.org                      |
|    \\/     M anipulation  |                                                 |
\*---------------------------------------------------------------------------*/
FoamFile
{
    version     2.0;
    format      ascii;
    class       polyBoundaryMesh;
    location    "constant/polyMesh";
    object      boundary;
}
// * * * * * * * * * * * * * * * * * * * * * * * * * * * * * * * * * * * * * //

12
(
    FrontAndBack
    {
        type            empty;
        physicalType    patch;
        inGroups        1(empty);
        nFaces          20234;
        startFace       15900;
    }
    patch1
    {
        type            wall;
        physicalType    patch;
        inGroups        1(wall);
        nFaces          37;
        startFace       36134;
    }
    patch2
    {
        type            wall;
        physicalType    patch;
        inGroups        1(wall);
        nFaces          0;
        startFace       36171;
    }
    patch3
    {
        type            wall;
        physicalType    patch;
        inGroups        1(wall);
        nFaces          0;
        startFace       36171;
    }
    Shaft
    {
        type            wall;
        physicalType    patch;
        inGroups        1(wall);
        nFaces          4;
        startFace       36171;
    }
    Inlet
    {
        type            patch;
        physicalType    patch;
        nFaces          0;
        startFace       36175;
    }
    Lat-Wall
    {
        type            wall;
        physicalType    patch;
        inGroups        1(wall);
        nFaces          26;
        startFace       36175;
    }
    Outlet
    {
        type            patch;
        physicalType    patch;
        nFaces          20;
        startFace       36201;
    }
    AMI-St
    {
        type            cyclicAMI;
        inGroups        1(cyclicAMI);
        nFaces          43;
        startFace       36221;
        matchTolerance  0.0001;
        transform       unknown;
        neighbourPatch  AMI-Rt;
    }
    AMI-Rt
    {
        type            cyclicAMI;
        inGroups        1(cyclicAMI);
        nFaces          43;
        startFace       36264;
        matchTolerance  0.0001;
        transform       unknown;
        neighbourPatch  AMI-St;
    }
    procBoundary3to1
    {
        type            processor;
        inGroups        1(processor);
        nFaces          150;
        startFace       36307;
        matchTolerance  0.0001;
        transform       unknown;
        myProcNo        3;
        neighbProcNo    1;
    }
    procBoundary3to2
    {
        type            processor;
        inGroups        1(processor);
        nFaces          197;
        startFace       36457;
        matchTolerance  0.0001;
        transform       unknown;
        myProcNo        3;
        neighbProcNo    2;
    }
)

// ************************************************************************* //
