/*--------------------------------*- C++ -*----------------------------------*\
| =========                 |                                                 |
| \\      /  F ield         | OpenFOAM: The Open Source CFD Toolbox           |
|  \\    /   O peration     | Version:  3.0.1                                 |
|   \\  /    A nd           | Web:      www.OpenFOAM.org                      |
|    \\/     M anipulation  |                                                 |
\*---------------------------------------------------------------------------*/
FoamFile
{
    version     2.0;
    format      ascii;
    class       polyBoundaryMesh;
    location    "constant/polyMesh";
    object      boundary;
}
// * * * * * * * * * * * * * * * * * * * * * * * * * * * * * * * * * * * * * //

12
(
    FrontAndBack
    {
        type            empty;
        physicalType    patch;
        inGroups        1(empty);
        nFaces          20880;
        startFace       17837;
    }
    patch1
    {
        type            wall;
        physicalType    patch;
        inGroups        1(wall);
        nFaces          0;
        startFace       38717;
    }
    patch2
    {
        type            wall;
        physicalType    patch;
        inGroups        1(wall);
        nFaces          98;
        startFace       38717;
    }
    patch3
    {
        type            wall;
        physicalType    patch;
        inGroups        1(wall);
        nFaces          0;
        startFace       38815;
    }
    Shaft
    {
        type            wall;
        physicalType    patch;
        inGroups        1(wall);
        nFaces          0;
        startFace       38815;
    }
    Inlet
    {
        type            patch;
        physicalType    patch;
        nFaces          0;
        startFace       38815;
    }
    Lat-Wall
    {
        type            wall;
        physicalType    patch;
        inGroups        1(wall);
        nFaces          26;
        startFace       38815;
    }
    Outlet
    {
        type            patch;
        physicalType    patch;
        nFaces          19;
        startFace       38841;
    }
    AMI-St
    {
        type            cyclicAMI;
        inGroups        1(cyclicAMI);
        nFaces          37;
        startFace       38860;
        matchTolerance  0.0001;
        transform       unknown;
        neighbourPatch  AMI-Rt;
    }
    AMI-Rt
    {
        type            cyclicAMI;
        inGroups        1(cyclicAMI);
        nFaces          37;
        startFace       38897;
        matchTolerance  0.0001;
        transform       unknown;
        neighbourPatch  AMI-St;
    }
    procBoundary1to0
    {
        type            processor;
        inGroups        1(processor);
        nFaces          73;
        startFace       38934;
        matchTolerance  0.0001;
        transform       unknown;
        myProcNo        1;
        neighbProcNo    0;
    }
    procBoundary1to3
    {
        type            processor;
        inGroups        1(processor);
        nFaces          150;
        startFace       39007;
        matchTolerance  0.0001;
        transform       unknown;
        myProcNo        1;
        neighbProcNo    3;
    }
)

// ************************************************************************* //
