/*--------------------------------*- C++ -*----------------------------------*\
| =========                 |                                                 |
| \\      /  F ield         | OpenFOAM: The Open Source CFD Toolbox           |
|  \\    /   O peration     | Version:  3.0.1                                 |
|   \\  /    A nd           | Web:      www.OpenFOAM.org                      |
|    \\/     M anipulation  |                                                 |
\*---------------------------------------------------------------------------*/
FoamFile
{
    version     2.0;
    format      ascii;
    class       polyBoundaryMesh;
    location    "constant/polyMesh";
    object      boundary;
}
// * * * * * * * * * * * * * * * * * * * * * * * * * * * * * * * * * * * * * //

12
(
    FrontAndBack
    {
        type            empty;
        physicalType    patch;
        inGroups        1(empty);
        nFaces          20880;
        startFace       16912;
    }
    patch1
    {
        type            wall;
        physicalType    patch;
        inGroups        1(wall);
        nFaces          61;
        startFace       37792;
    }
    patch2
    {
        type            wall;
        physicalType    patch;
        inGroups        1(wall);
        nFaces          0;
        startFace       37853;
    }
    patch3
    {
        type            wall;
        physicalType    patch;
        inGroups        1(wall);
        nFaces          0;
        startFace       37853;
    }
    Shaft
    {
        type            wall;
        physicalType    patch;
        inGroups        1(wall);
        nFaces          14;
        startFace       37853;
    }
    Inlet
    {
        type            patch;
        physicalType    patch;
        nFaces          20;
        startFace       37867;
    }
    Lat-Wall
    {
        type            wall;
        physicalType    patch;
        inGroups        1(wall);
        nFaces          13;
        startFace       37887;
    }
    Outlet
    {
        type            patch;
        physicalType    patch;
        nFaces          0;
        startFace       37900;
    }
    AMI-St
    {
        type            cyclicAMI;
        inGroups        1(cyclicAMI);
        nFaces          45;
        startFace       37900;
        matchTolerance  0.0001;
        transform       unknown;
        neighbourPatch  AMI-Rt;
    }
    AMI-Rt
    {
        type            cyclicAMI;
        inGroups        1(cyclicAMI);
        nFaces          45;
        startFace       37945;
        matchTolerance  0.0001;
        transform       unknown;
        neighbourPatch  AMI-St;
    }
    procBoundary2to0
    {
        type            processor;
        inGroups        1(processor);
        nFaces          112;
        startFace       37990;
        matchTolerance  0.0001;
        transform       unknown;
        myProcNo        2;
        neighbProcNo    0;
    }
    procBoundary2to3
    {
        type            processor;
        inGroups        1(processor);
        nFaces          197;
        startFace       38102;
        matchTolerance  0.0001;
        transform       unknown;
        myProcNo        2;
        neighbProcNo    3;
    }
)

// ************************************************************************* //
