/*--------------------------------*- C++ -*----------------------------------*\
| =========                 |                                                 |
| \\      /  F ield         | OpenFOAM: The Open Source CFD Toolbox           |
|  \\    /   O peration     | Version:  3.0.1                                 |
|   \\  /    A nd           | Web:      www.OpenFOAM.org                      |
|    \\/     M anipulation  |                                                 |
\*---------------------------------------------------------------------------*/
FoamFile
{
    version     2.0;
    format      ascii;
    class       polyBoundaryMesh;
    location    "constant/polyMesh";
    object      boundary;
}
// * * * * * * * * * * * * * * * * * * * * * * * * * * * * * * * * * * * * * //

12
(
    FrontAndBack
    {
        type            empty;
        physicalType    patch;
        inGroups        1(empty);
        nFaces          20234;
        startFace       17376;
    }
    patch1
    {
        type            wall;
        physicalType    patch;
        inGroups        1(wall);
        nFaces          0;
        startFace       37610;
    }
    patch2
    {
        type            wall;
        physicalType    patch;
        inGroups        1(wall);
        nFaces          0;
        startFace       37610;
    }
    patch3
    {
        type            wall;
        physicalType    patch;
        inGroups        1(wall);
        nFaces          98;
        startFace       37610;
    }
    Shaft
    {
        type            wall;
        physicalType    patch;
        inGroups        1(wall);
        nFaces          0;
        startFace       37708;
    }
    Inlet
    {
        type            patch;
        physicalType    patch;
        nFaces          19;
        startFace       37708;
    }
    Lat-Wall
    {
        type            wall;
        physicalType    patch;
        inGroups        1(wall);
        nFaces          13;
        startFace       37727;
    }
    Outlet
    {
        type            patch;
        physicalType    patch;
        nFaces          0;
        startFace       37740;
    }
    AMI-St
    {
        type            cyclicAMI;
        inGroups        1(cyclicAMI);
        nFaces          39;
        startFace       37740;
        matchTolerance  0.0001;
        transform       unknown;
        neighbourPatch  AMI-Rt;
    }
    AMI-Rt
    {
        type            cyclicAMI;
        inGroups        1(cyclicAMI);
        nFaces          39;
        startFace       37779;
        matchTolerance  0.0001;
        transform       unknown;
        neighbourPatch  AMI-St;
    }
    procBoundary0to1
    {
        type            processor;
        inGroups        1(processor);
        nFaces          73;
        startFace       37818;
        matchTolerance  0.0001;
        transform       unknown;
        myProcNo        0;
        neighbProcNo    1;
    }
    procBoundary0to2
    {
        type            processor;
        inGroups        1(processor);
        nFaces          112;
        startFace       37891;
        matchTolerance  0.0001;
        transform       unknown;
        myProcNo        0;
        neighbProcNo    2;
    }
)

// ************************************************************************* //
