/*--------------------------------*- C++ -*----------------------------------*\
| =========                 |                                                 |
| \\      /  F ield         | OpenFOAM: The Open Source CFD Toolbox           |
|  \\    /   O peration     | Version:  3.0.1                                 |
|   \\  /    A nd           | Web:      www.OpenFOAM.org                      |
|    \\/     M anipulation  |                                                 |
\*---------------------------------------------------------------------------*/
FoamFile
{
    version     2.0;
    format      ascii;
    class       volScalarField;
    location    "0";
    object      nut;
}
// * * * * * * * * * * * * * * * * * * * * * * * * * * * * * * * * * * * * * //

dimensions      [0 2 -1 0 0 0 0];

internalField   uniform 0;

boundaryField
{
	Inlet
	{
        type            fixedValue;
        value           $internalField;
	}
	outlet
	{
        type            inletOutlet;
        inletValue      $internalField;
        value           $internalField;
	}
	ami
	{ 
		type 			cyclicAMI;
		value 			$internalField; 
	}  
	ami1
	{ 
		type 			cyclicAMI;
		value 			$internalField; 
	} 
	blades
    {
        type            nutkWallFunction;
        value           uniform 0;
    }
    center
    {
        type            nutkWallFunction;
        value           uniform 0;
    }
    Front
    {
        type            empty;
    }
    Back
    {
        type            empty;
    }
    patch2
    {
        type            empty;
    }
    latWalls
    {
        type            empty;
    }
}


// ************************************************************************* //
