/*--------------------------------*- C++ -*----------------------------------*\
| =========                 |                                                 |
| \\      /  F ield         | OpenFOAM: The Open Source CFD Toolbox           |
|  \\    /   O peration     | Version:  3.0.1                                 |
|   \\  /    A nd           | Web:      www.OpenFOAM.org                      |
|    \\/     M anipulation  |                                                 |
\*---------------------------------------------------------------------------*/
FoamFile
{
    version     2.0;
    format      ascii;
    class       volScalarField;
    object      p;
}
// * * * * * * * * * * * * * * * * * * * * * * * * * * * * * * * * * * * * * //

dimensions      [0 2 -2 0 0 0 0];

internalField   uniform 0;

boundaryField
{
Inlet
{
	type            zeroGradient;
}
Outlet
{
	type            fixedValue;
	value           uniform 0;
}
FrontAndBack
{
	type            empty;
}
Lat-Wall
{
       	type            empty;
}
AMI-St
{ 
	type 			cyclicAMI;
	value 			$internalField; 
}
AMI-Rt
{ 
	type 			cyclicAMI;
	value 			$internalField; 
}
Airfoil_1
{
	type            zeroGradient;
}
Airfoil_2
{
	type            zeroGradient;
}
Airfoil_3
{
	type            zeroGradient;
}
Shaft
{
	type            zeroGradient;
}
defaultFaces
{
	type            empty;
}
}

// ************************************************************************* //
